---- qbsp / ericw-tools v0.18 ----
Input file: main.map
Output file: main.bsp

---- LoadMapFile ----
*** WARNING 06: No info_player_deathmatch entities in level
         1239 faces
          193 brushes
            8 entities
            4 unique texnames
          258 texinfo

Opened WAD: ../../thjam.wad
Opened WAD: ../../prototype_1_2.wad
Processing hull 0...
---- Brush_LoadEntity ----
          193 brushes
          343 planes
---- CSGFaces ----
         1239 brushfaces
         1289 csgfaces
         1161 mergedfaces
---- SolidBSP ----
         1547 split nodes
          528 solid leafs
          885 empty leafs
          135 water leafs
            0 detail leafs
            0 detail illusionary leafs
            0 detail fence leafs
            0 illusionary visblocker leafs
         4045 leaffaces
         3810 nodefaces
---- Portalize ----
         1020 vis leafs
         1020 vis clusters
         3228 vis portals
---- FillOutside ----
          233 outleafs
---- MergeAll ----
         1141 mergefaces
---- SolidBSP ----
          949 split nodes
          428 solid leafs
          442 empty leafs
           80 water leafs
            0 detail leafs
            0 detail illusionary leafs
            0 detail fence leafs
            0 illusionary visblocker leafs
         2689 leaffaces
         2420 nodefaces
---- Portalize ----
          522 vis leafs
          522 vis clusters
         1687 vis portals
---- Tjunc ----
         2076 world edges
         7577 edge points
         2176 edges added by tjunctions
            0 faces added by tjunctions
---- MakeFaceEdges ----
---- GrowRegions ----
Processing hull 1...
Processing hull 2...
---- WriteBSPFile ----
Wrote main.bsp
          886 planes            17720
         3060 vertexes          36720
          949 nodes             22776
          227 texinfo            9080
         2420 faces             48400
         1885 clipnodes         15080
          523 leafs             14644
         2689 marksurfaces       5378
        11838 surfedges         47352
         5922 edges             23688
            4 textures         108980
              lightdata             0
              visdata               0
              entdata             542

0.447 seconds elapsed
Peak memory usage: 12533150 (12.0M)
