---- qbsp / ericw-tools v0.18 ----
Input file: main.map
Output file: main.bsp

---- LoadMapFile ----
*** WARNING 06: No info_player_deathmatch entities in level
         3621 faces
          551 brushes
            7 entities
            5 unique texnames
          417 texinfo

Opened WAD: ../../thjam.wad
Opened WAD: ../../prototype_1_2.wad
Processing hull 0...
---- Brush_LoadEntity ----
          551 brushes
          954 planes
---- CSGFaces ----
         3621 brushfaces
         3932 csgfaces
         3444 mergedfaces
---- SolidBSP ----
         4917 split nodes
         1545 solid leafs
         2883 empty leafs
          490 water leafs
            0 detail leafs
            0 detail illusionary leafs
            0 detail fence leafs
            0 illusionary visblocker leafs
        13931 leaffaces
        13055 nodefaces
---- Portalize ----
         3373 vis leafs
         3373 vis clusters
        10931 vis portals
---- FillOutside ----
          796 outleafs
---- MergeAll ----
         3233 mergefaces
---- SolidBSP ----
         2949 split nodes
         1183 solid leafs
         1505 empty leafs
          262 water leafs
            0 detail leafs
            0 detail illusionary leafs
            0 detail fence leafs
            0 illusionary visblocker leafs
         8971 leaffaces
         8138 nodefaces
---- Portalize ----
         1767 vis leafs
         1767 vis clusters
         6129 vis portals
---- Tjunc ----
         6548 world edges
        25507 edge points
         7286 edges added by tjunctions
            0 faces added by tjunctions
---- MakeFaceEdges ----
---- GrowRegions ----
Processing hull 1...
Processing hull 2...
---- WriteBSPFile ----
Wrote main.bsp
         1905 planes            38100
        10368 vertexes         124416
         2949 nodes             70776
          326 texinfo           13040
         8138 faces            162760
         3489 clipnodes         27912
         1768 leafs             49504
         8971 marksurfaces      17942
        39778 surfedges        159112
        19892 edges             79568
            5 textures         130784
              lightdata             0
              visdata               0
              entdata             492
         BSPX BRUSHLIST             0

1.266 seconds elapsed
Peak memory usage: 40466222 (38.6M)
