---- qbsp / ericw-tools v0.18 ----
Input file: main.map
Output file: main.bsp

---- LoadMapFile ----
*** WARNING 06: No info_player_deathmatch entities in level
         2693 faces
          416 brushes
            8 entities
            5 unique texnames
          366 texinfo

Opened WAD: ../../thjam.wad
Opened WAD: ../../prototype_1_2.wad
Processing hull 0...
---- Brush_LoadEntity ----
          416 brushes
          716 planes
---- CSGFaces ----
         2693 brushfaces
         2850 csgfaces
         2543 mergedfaces
---- SolidBSP ----
         3470 split nodes
         1119 solid leafs
         1981 empty leafs
          371 water leafs
            0 detail leafs
            0 detail illusionary leafs
            0 detail fence leafs
            0 illusionary visblocker leafs
        10492 leaffaces
         9958 nodefaces
---- Portalize ----
         2352 vis leafs
         2352 vis clusters
         7517 vis portals
---- FillOutside ----
          633 outleafs
---- MergeAll ----
         2368 mergefaces
---- SolidBSP ----
         1929 split nodes
          824 solid leafs
          923 empty leafs
          183 water leafs
            0 detail leafs
            0 detail illusionary leafs
            0 detail fence leafs
            0 illusionary visblocker leafs
         6083 leaffaces
         5498 nodefaces
---- Portalize ----
         1106 vis leafs
         1106 vis clusters
         3752 vis portals
---- Tjunc ----
         4511 world edges
        17303 edge points
         5269 edges added by tjunctions
            0 faces added by tjunctions
---- MakeFaceEdges ----
---- GrowRegions ----
Processing hull 1...
Processing hull 2...
---- WriteBSPFile ----
Wrote main.bsp
         1929 planes            38580
         7106 vertexes          85272
         1929 nodes             46296
          304 texinfo           12160
         5498 faces            109960
         4299 clipnodes         34392
         1107 leafs             30996
         6083 marksurfaces      12166
        27220 surfedges        108880
        13613 edges             54452
            5 textures         130784
              lightdata             0
              visdata               0
              entdata             542

0.924 seconds elapsed
Peak memory usage: 28354542 (27.0M)
