---- qbsp / ericw-tools v0.18 ----
Input file: main.map
Output file: main.bsp

---- LoadMapFile ----
*** WARNING 06: No info_player_deathmatch entities in level
         3201 faces
          485 brushes
            7 entities
            5 unique texnames
          414 texinfo

Opened WAD: ../../thjam.wad
Opened WAD: ../../prototype_1_2.wad
Processing hull 0...
---- Brush_LoadEntity ----
          485 brushes
          906 planes
---- CSGFaces ----
         3201 brushfaces
         3577 csgfaces
         3102 mergedfaces
---- SolidBSP ----
         4432 split nodes
         1361 solid leafs
         2595 empty leafs
          477 water leafs
            0 detail leafs
            0 detail illusionary leafs
            0 detail fence leafs
            0 illusionary visblocker leafs
        12845 leaffaces
        12076 nodefaces
---- Portalize ----
         3072 vis leafs
         3072 vis clusters
         9848 vis portals
---- FillOutside ----
          784 outleafs
---- MergeAll ----
         2862 mergefaces
---- SolidBSP ----
         2600 split nodes
         1042 solid leafs
         1298 empty leafs
          261 water leafs
            0 detail leafs
            0 detail illusionary leafs
            0 detail fence leafs
            0 illusionary visblocker leafs
         8032 leaffaces
         7301 nodefaces
---- Portalize ----
         1559 vis leafs
         1559 vis clusters
         5348 vis portals
---- Tjunc ----
         5886 world edges
        22792 edge points
         6641 edges added by tjunctions
            0 faces added by tjunctions
---- MakeFaceEdges ----
---- GrowRegions ----
Processing hull 1...
Processing hull 2...
---- WriteBSPFile ----
Wrote main.bsp
         1804 planes            36080
         9325 vertexes         111900
         2600 nodes             62400
          324 texinfo           12960
         7301 faces            146020
         3018 clipnodes         24144
         1560 leafs             43680
         8032 marksurfaces      16064
        35816 surfedges        143264
        17911 edges             71644
            5 textures         130784
              lightdata             0
              visdata               0
              entdata             492

1.148 seconds elapsed
Peak memory usage: 36307872 (34.6M)
