---- qbsp / ericw-tools v0.18 ----
Input file: main.map
Output file: main.bsp

---- LoadMapFile ----
*** WARNING 06: No info_player_deathmatch entities in level
         3093 faces
          468 brushes
            7 entities
            5 unique texnames
          411 texinfo

Opened WAD: ../../thjam.wad
Opened WAD: ../../prototype_1_2.wad
Processing hull 0...
---- Brush_LoadEntity ----
          468 brushes
          879 planes
---- CSGFaces ----
         3093 brushfaces
         3420 csgfaces
         2978 mergedfaces
---- SolidBSP ----
         4301 split nodes
         1336 solid leafs
         2497 empty leafs
          469 water leafs
            0 detail leafs
            0 detail illusionary leafs
            0 detail fence leafs
            0 illusionary visblocker leafs
        12154 leaffaces
        11406 nodefaces
---- Portalize ----
         2966 vis leafs
         2966 vis clusters
         9493 vis portals
---- FillOutside ----
          766 outleafs
---- MergeAll ----
         2746 mergefaces
---- SolidBSP ----
         2492 split nodes
         1011 solid leafs
         1225 empty leafs
          257 water leafs
            0 detail leafs
            0 detail illusionary leafs
            0 detail fence leafs
            0 illusionary visblocker leafs
         7495 leaffaces
         6793 nodefaces
---- Portalize ----
         1482 vis leafs
         1482 vis clusters
         5078 vis portals
---- Tjunc ----
         5575 world edges
        21443 edge points
         6326 edges added by tjunctions
            0 faces added by tjunctions
---- MakeFaceEdges ----
---- GrowRegions ----
Processing hull 1...
Processing hull 2...
---- WriteBSPFile ----
Wrote main.bsp
         1742 planes            34840
         8781 vertexes         105372
         2492 nodes             59808
          322 texinfo           12880
         6793 faces            135860
         2863 clipnodes         22904
         1483 leafs             41524
         7495 marksurfaces      14990
        33470 surfedges        133880
        16738 edges             66952
            5 textures         130784
              lightdata             0
              visdata               0
              entdata             492

1.065 seconds elapsed
Peak memory usage: 34550358 (32.9M)
