---- qbsp / ericw-tools v0.18.1-32-g6660c5f ----
Input file: main.map
Output file: main.bsp

---- LoadMapFile ----
*** WARNING 06: No info_player_deathmatch entities in level
         3766 faces
          572 brushes
            8 entities
            5 unique texnames
          420 texinfo

Opened WAD: ../../thjam.wad
Opened WAD: ../../prototype_1_2.wad
Processing hull 0...
---- Brush_LoadEntity ----
          572 brushes
         1014 planes
---- CSGFaces ----
         3766 brushfaces
         4100 csgfaces
         3591 mergedfaces
---- SolidBSP ----
         5124 split nodes
         1613 solid leafs
         3012 empty leafs
          500 water leafs
            0 detail leafs
            0 detail illusionary leafs
            0 detail fence leafs
            0 illusionary visblocker leafs
        14431 leaffaces
        13512 nodefaces
---- Portalize ----
         3512 vis leafs
         3512 vis clusters
        11430 vis portals
---- FillOutside ----
          804 outleafs
---- MergeAll ----
         3389 mergefaces
---- SolidBSP ----
         3091 split nodes
         1220 solid leafs
         1600 empty leafs
          272 water leafs
            0 detail leafs
            0 detail illusionary leafs
            0 detail fence leafs
            0 illusionary visblocker leafs
         9400 leaffaces
         8526 nodefaces
---- Portalize ----
         1872 vis leafs
         1872 vis clusters
         6522 vis portals
---- Tjunc ----
         6889 world edges
        26775 edge points
         7619 edges added by tjunctions
            0 faces added by tjunctions
---- MakeFaceEdges ----
---- GrowRegions ----
Processing hull 1...
Processing hull 2...
---- WriteBSPFile ----
Wrote main.bsp
         2749 planes            54980
        10876 vertexes         130512
         3091 nodes             74184
          327 texinfo           13080
         8526 faces            170520
         7182 clipnodes         57456
         1873 leafs             52444
         9400 marksurfaces      18800
        41666 surfedges        166664
        20836 edges             83344
            5 textures         130784
              lightdata             0
              visdata               0
              entdata             541

1.172 seconds elapsed
Peak memory usage: 44203100 (42.2M)
