---- qbsp / ericw-tools v0.18.1-32-g6660c5f ----
Input file: main.map
Output file: main.bsp

---- LoadMapFile ----
*** WARNING 06: No info_player_deathmatch entities in level
         3621 faces
          551 brushes
            7 entities
            5 unique texnames
          417 texinfo

Opened WAD: ../../thjam.wad
Opened WAD: ../../prototype_1_2.wad
Processing hull 0...
---- Brush_LoadEntity ----
          551 brushes
          954 planes
---- CSGFaces ----
         3621 brushfaces
         3932 csgfaces
         3444 mergedfaces
---- SolidBSP ----
         4917 split nodes
         1545 solid leafs
         2883 empty leafs
          490 water leafs
            0 detail leafs
            0 detail illusionary leafs
            0 detail fence leafs
            0 illusionary visblocker leafs
        13931 leaffaces
        13055 nodefaces
---- Portalize ----
         3373 vis leafs
         3373 vis clusters
        10931 vis portals
---- FillOutside ----
          796 outleafs
---- MergeAll ----
         3233 mergefaces
---- SolidBSP ----
         2949 split nodes
         1183 solid leafs
         1505 empty leafs
          262 water leafs
            0 detail leafs
            0 detail illusionary leafs
            0 detail fence leafs
            0 illusionary visblocker leafs
         8971 leaffaces
         8138 nodefaces
---- Portalize ----
         1767 vis leafs
         1767 vis clusters
         6129 vis portals
---- Tjunc ----
         6548 world edges
        25507 edge points
         7286 edges added by tjunctions
            0 faces added by tjunctions
---- MakeFaceEdges ----
---- GrowRegions ----
Processing hull 1...
---- Brush_LoadEntity ----
          551 brushes
         2303 planes
---- CSGFaces ----
         4179 brushfaces
         6034 csgfaces
         3526 mergedfaces
---- SolidBSP ----
         5248 split nodes
         2145 solid leafs
         3104 empty leafs
            0 water leafs
            0 detail leafs
            0 detail illusionary leafs
            0 detail fence leafs
            0 illusionary visblocker leafs
         8223 leaffaces
         7528 nodefaces
---- Portalize ----
---- FillOutside ----
          801 outleafs
---- SolidBSP ----
         3327 split nodes
         1474 solid leafs
         1854 empty leafs
            0 water leafs
            0 detail leafs
            0 detail illusionary leafs
            0 detail fence leafs
            0 illusionary visblocker leafs
         7538 leaffaces
         6870 nodefaces
Processing hull 2...
---- Brush_LoadEntity ----
          551 brushes
         3336 planes
---- CSGFaces ----
         4179 brushfaces
         5869 csgfaces
         3438 mergedfaces
---- SolidBSP ----
         5072 split nodes
         2138 solid leafs
         2935 empty leafs
            0 water leafs
            0 detail leafs
            0 detail illusionary leafs
            0 detail fence leafs
            0 illusionary visblocker leafs
         7950 leaffaces
         7252 nodefaces
---- Portalize ----
---- FillOutside ----
         2857 outleafs
---- SolidBSP ----
          162 split nodes
           88 solid leafs
           75 empty leafs
            0 water leafs
            0 detail leafs
            0 detail illusionary leafs
            0 detail fence leafs
            0 illusionary visblocker leafs
          368 leaffaces
          330 nodefaces
            0 texture frames added
---- WriteBSPFile ----
Wrote main.bsp
         1905 planes            38100
        10368 vertexes         124416
         2949 nodes             70776
          326 texinfo           13040
         8138 faces            162760
         3489 clipnodes         27912
         1768 leafs             49504
         8971 marksurfaces      17942
        39778 surfedges        159112
        19892 edges             79568
            5 textures            224
              lightdata             0
              visdata               0
              entdata             492

0.700 seconds elapsed

Data type        CurrentNum    PeakNum      PeakMem
BSPEntity               491        491          491         
BSPPlane               3341       5650       113000   110.4k
BSPTex                  224        224          224         
BSPVertex             10368      50146       601752     0.6M
BSPVis                    0          0            0         
BSPNode                2949       2949        70776    69.1k
BSPTexinfo              417        417        16680    16.3k
BSPFace                8138       8138       162760   158.9k
BSPLight                  0          0            0         
BSPClipnode            3489       6816        54528    53.3k
BSPLeaf                1768       1768        49504    48.3k
BSPMarksurface         8971       8971        17942    17.5k
BSPEdge               19892      59671       238684   233.1k
BSPSurfedge           39778      39778       159112   155.4k
BSPModel                  1          1           80         
Mapface                   0          0            0         
Mapbrush                  0          0            0         
Mapentity                 0          0            0         
Winding                   0      24428      5023128     4.8M
Face                   8138      19854     32401728    30.9M
Plane                     0          0            0         
Portal                    0      24427      1172496     1.1M
Surface                   0       1412       135552   132.4k
Node                   5899      16396      2361024     2.3M
Brush                     0        551        39672    38.7k
Miptex                    0          0            0         
World verts               0      64984      1559616     1.5M
World edges               0      32492      2599360     2.5M
Hash verts                0          0            0         
Other                553176    1049120      1049120     1.0M
Total                                      42044718    40.1M
