---- qbsp / ericw-tools v0.18 ----
Input file: main.map
Output file: main.bsp

---- LoadMapFile ----
*** WARNING 06: No info_player_deathmatch entities in level
         1667 faces
          262 brushes
            8 entities
            4 unique texnames
          338 texinfo

Opened WAD: ../../thjam.wad
Opened WAD: ../../prototype_1_2.wad
Processing hull 0...
---- Brush_LoadEntity ----
          262 brushes
          460 planes
---- CSGFaces ----
         1667 brushfaces
         1777 csgfaces
         1642 mergedfaces
---- SolidBSP ----
         2124 split nodes
          687 solid leafs
         1205 empty leafs
          233 water leafs
            0 detail leafs
            0 detail illusionary leafs
            0 detail fence leafs
            0 illusionary visblocker leafs
         5672 leaffaces
         5381 nodefaces
---- Portalize ----
         1438 vis leafs
         1438 vis clusters
         4472 vis portals
---- FillOutside ----
          406 outleafs
---- MergeAll ----
         1497 mergefaces
---- SolidBSP ----
         1182 split nodes
          523 solid leafs
          549 empty leafs
          111 water leafs
            0 detail leafs
            0 detail illusionary leafs
            0 detail fence leafs
            0 illusionary visblocker leafs
         3557 leaffaces
         3259 nodefaces
---- Portalize ----
          660 vis leafs
          660 vis clusters
         2197 vis portals
---- Tjunc ----
         2732 world edges
        10095 edge points
         3021 edges added by tjunctions
            0 faces added by tjunctions
---- MakeFaceEdges ----
---- GrowRegions ----
Processing hull 1...
Processing hull 2...
---- WriteBSPFile ----
Wrote main.bsp
         1217 planes            24340
         4082 vertexes          48984
         1182 nodes             28368
          284 texinfo           11360
         3259 faces             65180
         2838 clipnodes         22704
          661 leafs             18508
         3557 marksurfaces       7114
        16006 surfedges         64024
         8006 edges             32024
            4 textures         108980
              lightdata             0
              visdata               0
              entdata             542

0.572 seconds elapsed
Peak memory usage: 17313218 (16.5M)
