---- qbsp / ericw-tools v0.18 ----
Input file: main.map
Output file: main.bsp

---- LoadMapFile ----
*** WARNING 06: No info_player_deathmatch entities in level
         3132 faces
          476 brushes
            8 entities
            5 unique texnames
          406 texinfo

Opened WAD: ../../thjam.wad
Opened WAD: ../../prototype_1_2.wad
Processing hull 0...
---- Brush_LoadEntity ----
          476 brushes
          868 planes
---- CSGFaces ----
         3132 brushfaces
         3372 csgfaces
         2971 mergedfaces
---- SolidBSP ----
         4293 split nodes
         1331 solid leafs
         2493 empty leafs
          470 water leafs
            0 detail leafs
            0 detail illusionary leafs
            0 detail fence leafs
            0 illusionary visblocker leafs
        12151 leaffaces
        11413 nodefaces
---- Portalize ----
         2963 vis leafs
         2963 vis clusters
         9512 vis portals
---- FillOutside ----
          770 outleafs
---- MergeAll ----
         2762 mergefaces
---- SolidBSP ----
         2502 split nodes
         1028 solid leafs
         1218 empty leafs
          257 water leafs
            0 detail leafs
            0 detail illusionary leafs
            0 detail fence leafs
            0 illusionary visblocker leafs
         7498 leaffaces
         6799 nodefaces
---- Portalize ----
         1475 vis leafs
         1475 vis clusters
         5075 vis portals
---- Tjunc ----
         5585 world edges
        21469 edge points
         6333 edges added by tjunctions
            0 faces added by tjunctions
---- MakeFaceEdges ----
---- GrowRegions ----
Processing hull 1...
Processing hull 2...
---- WriteBSPFile ----
Wrote main.bsp
         2330 planes            46600
         8795 vertexes         105540
         2502 nodes             60048
          325 texinfo           13000
         6799 faces            135980
         5468 clipnodes         43744
         1476 leafs             41328
         7498 marksurfaces      14996
        33510 surfedges        134040
        16758 edges             67032
            5 textures         130784
              lightdata             0
              visdata               0
              entdata             542

1.105 seconds elapsed
Peak memory usage: 34683616 (33.1M)
